Circuit: * C:\Users\mikol\Desktop\Projekty\Differential Probe\Simulations\AD8129 - Copy.asc

WARNING: Less than two connections to node u2:_u113:nref_hi.  This node is used by e:u2:_u113:ref_hi.
WARNING: Less than two connections to node u2:_u113:nref_low.  This node is used by e:u2:_u113:ref_low.
WARNING: Less than two connections to node u2:_u113:npdz_hi.  This node is used by e:u2:_u113:pdz_hi.
WARNING: Less than two connections to node u2:_u113:npdz_low.  This node is used by e:u2:_u113:pdz_low.
u2:d_in_clmp: Emission coefficient, N=0.02, too small, limited to 0.1
Direct Newton iteration for .op point succeeded.

Date: Mon Jun  9 20:53:43 2025
Total elapsed time: 0.082 seconds.

tnom = 27
temp = 27
method = trap
totiter = 26
traniter = 0
tranpoints = 0
accept = 0
rejected = 0
matrix size = 291
fillins = 171
solver = Normal
Avg thread counts: 8.0/0.0/8.0/4.3
Matrix Compiler1:    1119 opcodes
Matrix Compiler2: 23.23 KB object code size
