Circuit: * C:\Users\mikol\Desktop\Projekty\Differential Probe\Simulations\Comparator_output_delay.asc

Direct Newton iteration for .op point succeeded.

Date: Sun Apr 27 08:19:02 2025
Total elapsed time: 0.158 seconds.

tnom = 27
temp = 27
method = modified trap
totiter = 2520
traniter = 2515
tranpoints = 1231
accept = 1193
rejected = 38
matrix size = 10
fillins = 0
solver = Normal
Avg thread counts: 2.1/3.2/3.2/2.1
Matrix Compiler1: 444 bytes object code size  0.3/0.4/[0.2]
Matrix Compiler2: 706 bytes object code size  0.2/0.2/[0.1]

