Circuit: * C:\Users\mikol\Desktop\Projekty\Differential Probe\Simulations\Input Protection.asc

WARNING: Specified period is not longer than the sum of Trise, Tfall, and Ton for v1.  Increasing period to 3
WARNING: Less than two connections to node u2:_u113:nref_hi.  This node is used by e:u2:_u113:ref_hi.
WARNING: Less than two connections to node u2:_u113:nref_low.  This node is used by e:u2:_u113:ref_low.
WARNING: Less than two connections to node u2:_u113:npdz_hi.  This node is used by e:u2:_u113:pdz_hi.
WARNING: Less than two connections to node u2:_u113:npdz_low.  This node is used by e:u2:_u113:pdz_low.
u2:d_in_clmp: Emission coefficient, N=0.02, too small, limited to 0.1
Direct Newton iteration for .op point succeeded.

Date: Wed Jun 11 17:07:59 2025
Total elapsed time: 0.415 seconds.

tnom = 27
temp = 27
method = modified trap
totiter = 8614
traniter = 8569
tranpoints = 2005
accept = 1739
rejected = 266
matrix size = 297
fillins = 169
solver = Normal
Avg thread counts: 1.3/2.4/1.9/1.3
Matrix Compiler1: 19.21 KB object code size  5.0/4.2/[0.9]
Matrix Compiler2: 23.75 KB object code size  3.0/4.6/[2.2]

